@<TRIPOS>MOLECULE
res
 138 137 0 0 0
SMALL
GASTEIGER

@<TRIPOS>ATOM
      1 N         -10.4631   -6.1708    8.4860 N.3     1  GLN11      -0.3184
      2 CA        -10.1362   -6.9390    7.2858 C.3     1  GLN11       0.1032
      3 CB         -8.9403   -6.2972    6.5795 C.3     1  GLN11      -0.0273
      4 CG         -8.5983   -7.1012    5.3234 C.3     1  GLN11      -0.0497
      5 CD         -7.4024   -6.4594    4.6171 C.3     1  GLN11      -0.0373
      6 CE         -7.0603   -7.2633    3.3611 C.3     1  GLN11       0.0116
      7 NE2        -5.9582   -6.6719    2.7102 N.am    1  GLN11      -0.3153
      8 CD         -4.8316   -7.3742    2.5281 C.2     1  GLN11       0.2131
      9 OE1        -4.8841   -8.6158    2.3929 O.2     1  GLN11      -0.2758
     10 CG         -3.5429   -6.6893    2.4876 C.3     1  GLN11       0.0261
     11 CB         -2.4275   -7.7138    2.2702 C.3     1  GLN11      -0.0159
     12 CA         -1.0770   -6.9961    2.2278 C.3     1  GLN11       0.1207
     13 N          -0.8645   -6.3217    3.4477 N.am    1  GLN11      -0.3004
     14 C10        -0.6981   -4.9921    3.4582 C.2     1  <1>         0.2394
     15 O2         -0.1820   -4.4191    2.4744 O.2     1  <1>        -0.2733
     16 C11        -1.1194   -4.2128    4.6186 C.3     1  <1>         0.1237
     17 O3         -0.8409   -2.8388    4.3925 O.3     1  <1>        -0.3683
     18 C12        -1.2506   -2.0808    5.5212 C.3     1  <1>         0.0716
     19 C13        -0.9505   -0.6005    5.2776 C.3     1  <1>         0.0711
     20 O4         -1.3603    0.1576    6.4062 O.3     1  <1>        -0.3760
     21 C14        -1.0818    1.5315    6.1801 C.3     1  <1>         0.0633
     22 C15        -1.5233    2.3482    7.3962 C.3     1  <1>         0.0351
     23 N4         -1.2468    3.7125    7.1717 N.am    1  <1>        -0.3112
     24 C16        -2.2436    4.6080    7.1776 C.2     1  <1>         0.2389
     25 O5         -3.2543    4.4135    7.8869 O.2     1  <1>        -0.2733
     26 C17        -2.1491    5.8109    6.3556 C.3     1  <1>         0.1237
     27 O6         -3.3184    6.5972    6.5311 O.3     1  <1>        -0.3683
     28 C18        -3.2266    7.7671    5.7316 C.3     1  <1>         0.0716
     29 C19        -4.4865    8.6143    5.9207 C.3     1  <1>         0.0711
     30 O7         -4.3946    9.7842    5.1212 O.3     1  <1>        -0.3760
     31 C20        -5.5640   10.5705    5.2967 C.3     1  <1>         0.0632
     32 C21        -5.4650   11.8311    4.4353 C.3     1  <1>         0.0350
     33 N5         -6.6261   12.6118    4.6095 N.am    1  <1>        -0.3131
     34 C22        -6.7603   13.7697    3.9486 C.2     1  <1>         0.2131
     35 O8         -7.7897   14.4618    4.1031 O.2     1  <1>        -0.2758
     36 C23        -5.7043   14.2229    3.0481 C.3     1  <1>         0.0240
     37 C24        -5.1720   15.5754    3.5261 C.3     1  <1>        -0.0448
     38 C25        -4.0653   16.0503    2.5824 C.3     1  <1>        -0.0526
     39 C26        -3.5331   17.4028    3.0604 C.3     1  <1>        -0.0530
     40 C27        -2.4264   17.8777    2.1167 C.3     1  <1>        -0.0531
     41 C28        -1.8941   19.2302    2.5946 C.3     1  <1>        -0.0531
     42 C29        -0.7874   19.7051    1.6509 C.3     1  <1>        -0.0531
     43 C30        -0.2552   21.0576    2.1289 C.3     1  <1>        -0.0531
     44 C31         0.8515   21.5325    1.1852 C.3     1  <1>        -0.0531
     45 C32         1.3838   22.8850    1.6632 C.3     1  <1>        -0.0531
     46 C33         2.4905   23.3599    0.7195 C.3     1  <1>        -0.0531
     47 C34         3.0227   24.7123    1.1975 C.3     1  <1>        -0.0531
     48 C35         4.1294   25.1873    0.2538 C.3     1  <1>        -0.0531
     49 C36         4.6617   26.5397    0.7318 C.3     1  <1>        -0.0530
     50 C37         5.7684   27.0147   -0.2119 C.3     1  <1>        -0.0526
     51 C38         6.3006   28.3671    0.2661 C.3     1  <1>        -0.0430
     52 C39         7.4073   28.8421   -0.6776 C.3     1  <1>         0.0448
     53 C40         7.9152   30.1326   -0.2215 C.2     1  <1>         0.3047
     54 O9          8.8300   30.7032   -0.8540 O.2     1  <1>        -0.2510
     55 O10         7.3969   30.7098    0.8834 O.3     1  <1>        -0.4806
     56 C          -0.0126   -7.9737    2.0204 C.2     1  GLN11       0.3253
     57 O           1.1775   -7.5973    1.9541 O.2     1  GLN11      -0.2489
     58 OXT        -0.3138   -9.2841    1.9002 O.3     1  GLN11      -0.4793
     59 C          -9.8015   -8.3096    7.6614 C.2     1  GLN11       0.3217
     60 O         -10.6434   -9.0186    8.2538 O.2     1  GLN11      -0.2493
     61 OXT        -8.5827   -8.8111    7.3689 O.3     1  GLN11      -0.4795
     62 H1        -11.2619   -6.5995    8.9578 H       1  GLN11       0.1190
     63 H2        -10.6974   -5.2114    8.2231 H       1  GLN11       0.1190
     64 HA        -10.9944   -6.9457    6.6138 H       1  GLN11       0.0574
     65 HB1        -9.1902   -5.2740    6.2991 H       1  GLN11       0.0286
     66 HB2        -8.0822   -6.2905    7.2515 H       1  GLN11       0.0286
     67 HG1        -9.4564   -7.1079    4.6514 H       1  GLN11       0.0266
     68 HG2        -8.3484   -8.1244    5.6039 H       1  GLN11       0.0266
     69 HD1        -7.6523   -5.4361    4.3367 H       1  GLN11       0.0280
     70 HD2        -6.5442   -6.4527    5.2891 H       1  GLN11       0.0280
     71 HE1        -7.9185   -7.2700    2.6891 H       1  GLN11       0.0462
     72 HE2        -6.8104   -8.2866    3.6415 H       1  GLN11       0.0462
     73 HE2        -6.0155   -5.7566    2.3942 H       1  GLN11       0.1487
     74 HG1        -3.5396   -5.9695    1.6691 H       1  GLN11       0.0359
     75 HG2        -3.3787   -6.1680    3.4307 H       1  GLN11       0.0359
     76 HB1        -2.5917   -8.2351    1.3272 H       1  GLN11       0.0293
     77 HB2        -2.4308   -8.4337    3.0887 H       1  GLN11       0.0293
     78 HA         -1.0736   -6.2762    1.4093 H       1  GLN11       0.0614
     79 H          -0.8389   -6.8203    4.2794 H       1  GLN11       0.1496
     80 H19        -2.1898   -4.3454    4.7762 H       1  <1>         0.0656
     81 H20        -0.5774   -4.5530    5.5010 H       1  <1>         0.0656
     82 H21        -2.3210   -2.2134    5.6787 H       1  <1>         0.0583
     83 H22        -0.7086   -2.4210    6.4036 H       1  <1>         0.0583
     84 H23        -1.4926   -0.2603    4.3952 H       1  <1>         0.0583
     85 H24         0.1198   -0.4679    5.1200 H       1  <1>         0.0583
     86 H25        -1.6238    1.8717    5.2977 H       1  <1>         0.0575
     87 H26        -0.0114    1.6641    6.0226 H       1  <1>         0.0575
     88 H27        -2.5937    2.2156    7.5538 H       1  <1>         0.0484
     89 H28        -0.9813    2.0081    8.2786 H       1  <1>         0.0484
     90 H29        -0.3349    4.0028    7.0130 H       1  <1>         0.1488
     91 H30        -2.0554    5.5281    5.3071 H       1  <1>         0.0656
     92 H31        -1.2746    6.3883    6.6557 H       1  <1>         0.0656
     93 H32        -3.1329    7.4843    4.6831 H       1  <1>         0.0583
     94 H33        -2.3521    8.3445    6.0317 H       1  <1>         0.0583
     95 H34        -5.3610    8.0369    5.6206 H       1  <1>         0.0583
     96 H35        -4.5802    8.8971    6.9692 H       1  <1>         0.0583
     97 H36        -6.4384    9.9931    4.9966 H       1  <1>         0.0575
     98 H37        -5.6577   10.8533    6.3452 H       1  <1>         0.0575
     99 H38        -5.3713   11.5482    3.3868 H       1  <1>         0.0484
    100 H39        -4.5905   12.4084    4.7353 H       1  <1>         0.0484
    101 H40        -7.3277   12.3107    5.2078 H       1  <1>         0.1488
    102 H41        -6.1059   14.3262    2.0400 H       1  <1>         0.0358
    103 H42        -4.8934   13.4945    3.0433 H       1  <1>         0.0358
    104 H43        -5.9828   16.3038    3.5309 H       1  <1>         0.0270
    105 H44        -4.7704   15.4721    4.5341 H       1  <1>         0.0270
    106 H45        -4.4669   16.1536    1.5743 H       1  <1>         0.0265
    107 H46        -3.2545   15.3219    2.5776 H       1  <1>         0.0265
    108 H47        -4.3439   18.1312    3.0652 H       1  <1>         0.0265
    109 H48        -3.1315   17.2995    4.0684 H       1  <1>         0.0265
    110 H49        -2.8280   17.9810    1.1086 H       1  <1>         0.0265
    111 H50        -1.6155   17.1493    2.1119 H       1  <1>         0.0265
    112 H51        -2.7050   19.9586    2.5994 H       1  <1>         0.0265
    113 H52        -1.4925   19.1269    3.6027 H       1  <1>         0.0265
    114 H53        -1.1890   19.8084    0.6429 H       1  <1>         0.0265
    115 H54         0.0234   18.9767    1.6461 H       1  <1>         0.0265
    116 H55        -1.0660   21.7860    2.1337 H       1  <1>         0.0265
    117 H56         0.1464   20.9543    3.1370 H       1  <1>         0.0265
    118 H57         0.4499   21.6358    0.1772 H       1  <1>         0.0265
    119 H58         1.6623   20.8041    1.1804 H       1  <1>         0.0265
    120 H59         0.5729   23.6134    1.6680 H       1  <1>         0.0265
    121 H60         1.7854   22.7817    2.6713 H       1  <1>         0.0265
    122 H61         2.0889   23.4632   -0.2885 H       1  <1>         0.0265
    123 H62         3.3013   22.6315    0.7147 H       1  <1>         0.0265
    124 H63         2.2119   25.4408    1.2023 H       1  <1>         0.0265
    125 H64         3.4243   24.6091    2.2055 H       1  <1>         0.0265
    126 H65         3.7278   25.2906   -0.7542 H       1  <1>         0.0265
    127 H66         4.9402   24.4588    0.2490 H       1  <1>         0.0265
    128 H67         3.8508   27.2682    0.7366 H       1  <1>         0.0265
    129 H68         5.0633   26.4365    1.7398 H       1  <1>         0.0265
    130 H69         5.3668   27.1180   -1.2200 H       1  <1>         0.0265
    131 H70         6.5792   26.2862   -0.2167 H       1  <1>         0.0265
    132 H71         5.4898   29.0956    0.2709 H       1  <1>         0.0270
    133 H72         6.7022   28.2638    1.2741 H       1  <1>         0.0270
    134 H73         7.0057   28.9454   -1.6857 H       1  <1>         0.0377
    135 H74         8.2181   28.1136   -0.6824 H       1  <1>         0.0377
    136 H75         7.7378   31.5760    1.1895 H       1  <1>         0.2951
    137 HXT         0.4007   -9.9404    1.7609 H       1  GLN11       0.2951
    138 HXT        -8.3580   -9.7311    7.6210 H       1  GLN11       0.2951
@<TRIPOS>BOND
     1     2     1    1
     2     2     3    1
     3     3     4    1
     4     4     5    1
     5     5     6    1
     6     6     7    1
     7     7     8   am
     8     8     9    2
     9     8    10    1
    10    10    11    1
    11    11    12    1
    12    12    13    1
    13    13    14   am
    14    14    15    2
    15    14    16    1
    16    16    17    1
    17    17    18    1
    18    18    19    1
    19    19    20    1
    20    20    21    1
    21    21    22    1
    22    22    23    1
    23    23    24   am
    24    24    25    2
    25    24    26    1
    26    26    27    1
    27    27    28    1
    28    28    29    1
    29    29    30    1
    30    30    31    1
    31    31    32    1
    32    32    33    1
    33    33    34   am
    34    34    35    2
    35    34    36    1
    36    36    37    1
    37    37    38    1
    38    38    39    1
    39    39    40    1
    40    40    41    1
    41    41    42    1
    42    42    43    1
    43    43    44    1
    44    44    45    1
    45    45    46    1
    46    46    47    1
    47    47    48    1
    48    48    49    1
    49    49    50    1
    50    50    51    1
    51    51    52    1
    52    52    53    1
    53    53    54    2
    54    53    55    1
    55    12    56    1
    56    56    57    2
    57    56    58    1
    58     2    59    1
    59    59    60    2
    60    59    61    1
    61     1    62    1
    62     1    63    1
    63     2    64    1
    64     3    65    1
    65     3    66    1
    66     4    67    1
    67     4    68    1
    68     5    69    1
    69     5    70    1
    70     6    71    1
    71     6    72    1
    72     7    73    1
    73    10    74    1
    74    10    75    1
    75    11    76    1
    76    11    77    1
    77    12    78    1
    78    13    79    1
    79    16    80    1
    80    16    81    1
    81    18    82    1
    82    18    83    1
    83    19    84    1
    84    19    85    1
    85    21    86    1
    86    21    87    1
    87    22    88    1
    88    22    89    1
    89    23    90    1
    90    26    91    1
    91    26    92    1
    92    28    93    1
    93    28    94    1
    94    29    95    1
    95    29    96    1
    96    31    97    1
    97    31    98    1
    98    32    99    1
    99    32   100    1
   100    33   101    1
   101    36   102    1
   102    36   103    1
   103    37   104    1
   104    37   105    1
   105    38   106    1
   106    38   107    1
   107    39   108    1
   108    39   109    1
   109    40   110    1
   110    40   111    1
   111    41   112    1
   112    41   113    1
   113    42   114    1
   114    42   115    1
   115    43   116    1
   116    43   117    1
   117    44   118    1
   118    44   119    1
   119    45   120    1
   120    45   121    1
   121    46   122    1
   122    46   123    1
   123    47   124    1
   124    47   125    1
   125    48   126    1
   126    48   127    1
   127    49   128    1
   128    49   129    1
   129    50   130    1
   130    50   131    1
   131    51   132    1
   132    51   133    1
   133    52   134    1
   134    52   135    1
   135    55   136    1
   136    58   137    1
   137    61   138    1
