@<TRIPOS>MOLECULE
*****
 13 13 0 0 0
SMALL
GASTEIGER

@<TRIPOS>ATOM
      1 O00         1.0000    1.0000    0.0000 O.3     1  UNK1       -0.5068
      2 C01        -0.3600    1.0000    0.0000 C.ar    1  UNK1        0.1169
      3 C02        -1.0900    1.0000    1.1900 C.ar    1  UNK1       -0.0202
      4 C03        -2.4800    1.0000    1.1400 C.ar    1  UNK1       -0.0583
      5 C04        -3.1400    1.0000   -0.0900 C.ar    1  UNK1       -0.0615
      6 C05        -2.4000    1.0000   -1.2800 C.ar    1  UNK1       -0.0583
      7 C06        -1.0100    1.0000   -1.2300 C.ar    1  UNK1       -0.0202
      8 H07         1.3100    1.0000    0.9200 H       1  UNK1        0.2921
      9 H08        -0.5900    1.0000    2.1500 H       1  UNK1        0.0654
     10 H09        -3.0600    1.0000    2.0600 H       1  UNK1        0.0619
     11 H0A        -4.2300    1.0000   -0.1300 H       1  UNK1        0.0618
     12 H0B        -2.9100    1.0000   -2.2400 H       1  UNK1        0.0619
     13 H0C        -0.4300    1.0000   -2.1500 H       1  UNK1        0.0654
@<TRIPOS>BOND
     1    12     6    1
     2    13     7    1
     3     6     7   ar
     4     6     5   ar
     5     7     2   ar
     6    11     5    1
     7     5     4   ar
     8     1     2    1
     9     1     8    1
    10     2     3   ar
    11     4     3   ar
    12     4    10    1
    13     3     9    1
