@<TRIPOS>MOLECULE
PHENOL
13 13 0 0 0
SMALL
USER_CHARGES

@<TRIPOS>ATOM
   1 O00      1.0000     1.0000     0.0000 O.3   1 UNK 0.0000
   2 C01     -0.3600     1.0000     0.0000 C.ar  1 UNK 0.0000
   3 C02     -1.0900     1.0000     1.1900 C.ar  1 UNK 0.0000
   4 C03     -2.4800     1.0000     1.1400 C.ar  1 UNK 0.0000
   5 C04     -3.1400     1.0000    -0.0900 C.ar  1 UNK 0.0000
   6 C05     -2.4000     1.0000    -1.2800 C.ar  1 UNK 0.0000
   7 C06     -1.0100     1.0000    -1.2300 C.ar  1 UNK 0.0000
   8 H07      1.3100     1.0000     0.9200 H     1 UNK 0.0000
   9 H08     -0.5900     1.0000     2.1500 H     1 UNK 0.0000
  10 H09     -3.0600     1.0000     2.0600 H     1 UNK 0.0000
  11 H0A     -4.2300     1.0000    -0.1300 H     1 UNK 0.0000
  12 H0B     -2.9100     1.0000    -2.2400 H     1 UNK 0.0000
  13 H0C     -0.4300     1.0000    -2.1500 H     1 UNK 0.0000
@<TRIPOS>BOND
   1    1    2 1
   2    1    8 1
   3    2    3 ar
   4    3    4 ar
   5    4    5 ar
   6    5    6 ar
   7    6    7 ar
   8    7    2 ar
   9    3    9 1
  10    4   10 1
  11    5   11 1
  12    6   12 1
  13    7   13 1
