@<TRIPOS>MOLECULE
WF1
 45 44 0 0 0
SMALL
GASTEIGER

@<TRIPOS>ATOM
      1 C           2.3380    2.7800   -0.8660 C.3     1  UNL1        0.0633
      2 C          -6.7300   -1.2710   -0.3390 C.3     1  UNL1        0.0875
      3 O          -5.5240   -0.7710    0.2430 O.3     1  UNL1       -0.3723
      4 C           4.2470    2.0380    0.3780 C.3     1  UNL1        0.0711
      5 C           0.9510    2.3400   -1.3370 C.3     1  UNL1        0.0351
      6 C          -4.3250    0.9330    1.4670 C.3     1  UNL1        0.0716
      7 C          -2.0960    1.5600    0.8450 C.3     1  UNL1        0.1237
      8 C           5.6310   -2.5400   -0.0870 C.2     1  UNL1        0.0673
      9 C           5.4810   -1.4370    0.9280 C.3     1  UNL1        0.0869
     10 O           4.9730   -0.2660    0.2880 O.3     1  UNL1       -0.3718
     11 C           4.7930    0.8460    1.1680 C.3     1  UNL1        0.0715
     12 O           2.9410    1.7280   -0.1110 O.3     1  UNL1       -0.3760
     13 N           0.0790    2.1480   -0.1760 N.am    1  UNL1       -0.3112
     14 C          -1.1990    1.7580   -0.3500 C.2     1  UNL1        0.2389
     15 O          -3.3920    1.1490    0.4060 O.3     1  UNL1       -0.3683
     16 C          -5.6700    0.4980    0.8820 C.3     1  UNL1        0.0713
     17 C          -6.4570   -2.6280   -0.9920 C.3     1  UNL1       -0.0114
     18 N          -6.0920   -3.6040    0.0430 N.4     1  UNL1        0.2202
     19 O          -1.6280    1.5650   -1.4680 O.2     1  UNL1       -0.2733
     20 O           5.3330   -2.3430   -1.2420 O.co2   1  UNL1       -0.5474
     21 O           6.0960   -3.7420    0.2900 O.co2   1  UNL1       -0.5474
     22 H           2.2463    3.6518   -0.2525 H       1  UNL1        0.0575
     23 H           2.9485    3.0041   -1.7157 H       1  UNL1        0.0575
     24 H          -7.4731   -1.3847    0.4225 H       1  UNL1        0.0613
     25 H          -7.0806   -0.5829   -1.0796 H       1  UNL1        0.0613
     26 H           4.1945    2.8950    1.0165 H       1  UNL1        0.0583
     27 H           4.8961    2.2465   -0.4467 H       1  UNL1        0.0583
     28 H           0.5356    3.0923   -1.9745 H       1  UNL1        0.0484
     29 H           1.0331    1.4201   -1.8773 H       1  UNL1        0.0484
     30 H          -3.9548    0.1683    2.1174 H       1  UNL1        0.0583
     31 H          -4.4529    1.8401    2.0199 H       1  UNL1        0.0583
     32 H          -1.6802    0.8076    1.4821 H       1  UNL1        0.0656
     33 H          -2.1780    2.4800    1.3852 H       1  UNL1        0.0656
     34 H           4.8018   -1.7476    1.6943 H       1  UNL1        0.0622
     35 H           6.4346   -1.2204    1.3624 H       1  UNL1        0.0622
     36 H           5.7326    1.1092    1.6071 H       1  UNL1        0.0583
     37 H           4.1005    0.5819    1.9397 H       1  UNL1        0.0583
     38 H           0.4267    2.3039    0.7318 H       1  UNL1        0.1488
     39 H          -6.3922    0.4206    1.6677 H       1  UNL1        0.0583
     40 H          -5.9979    1.2220    0.1657 H       1  UNL1        0.0583
     41 H          -5.6529   -2.5321   -1.6914 H       1  UNL1        0.0836
     42 H          -7.3359   -2.9615   -1.5030 H       1  UNL1        0.0836
     43 H          -5.2541   -3.2858    0.5300 H       1  UNL1        0.1995
     44 H          -5.9097   -4.5085   -0.3918 H       1  UNL1        0.1995
     45 H          -6.8586   -3.6955    0.7096 H       1  UNL1        0.1995
@<TRIPOS>BOND
     1     2    17    1
     2     2     3    1
     3    17    18    1
     4     3    16    1
     5     7    15    1
     6     7    14    1
     7     6    16    1
     8    13    14   am
     9     5    13    1
    10     6    15    1
    11    14    19    2
    12     1     5    1
    13     1    12    1
    14     4    12    1
    15    10    11    1
    16     9    10    1
    17     4    11    1
    18     8    20   ar
    19     8     9    1
    20     8    21   ar
    21     1    22    1
    22     1    23    1
    23     2    24    1
    24     2    25    1
    25     4    26    1
    26     4    27    1
    27     5    28    1
    28     5    29    1
    29     6    30    1
    30     6    31    1
    31     7    32    1
    32     7    33    1
    33     9    34    1
    34     9    35    1
    35    11    36    1
    36    11    37    1
    37    13    38    1
    38    16    39    1
    39    16    40    1
    40    17    41    1
    41    17    42    1
    42    18    43    1
    43    18    44    1
    44    18    45    1
